Applications/Nadir_prediction/Data/case118_dyn.m
function dyn = case68_dyn
%% CASE118: Dynamic data for 118-bus, 19 generator case.
% Please see CASEFORMAT for details on the case file format.
%
% This is the data file for the 118-Bus Benchmark system with 19-machines.
% The data is partially taken from [1] with some of the 
% parameters modified to account for a more realistic model [2]. 
% This MATPOWER based data has been prepared by Sebastian Martinez and 
% Francisco Zelaya from Prof. Pulgar's research team at the
% University of Tennessee, Knoxville.
% 
%   References:
%   [1] W. A. Bukhsh, Andreas Grothey, Ken McKinnon, Paul trodden, "Local Solutions of Optimal Power Flow Problem"
%       submitted to IEEE Transactions on Power Systems, 2013
%   [2] W. A. Bukhsh, Andreas Grothey, Ken McKinnon, Paul trodden, "Local Solutions of Optimal Power Flow Problem"
%       Technical Report ERGO, 2011

%% Bus Data
% Bus   exp_P   exp_Q  
dyn.bus = [
   1     2       2;
   2     2       2;
   3     2       2;
   4     2       2;
   5     2       2;
   6     2       2;
   7     2       2;
   8     2       2;
   9     2       2;
  10     2       2;
  11     2       2;
  12     2       2;
  13     2       2;
  14     2       2;
  15     2       2;
  16     2       2;
  17     2       2;
  18     2       2;
  19     2       2;
  20     2       2;
  21     2       2;
  22     2       2;
  23     2       2;
  24     2       2;
  25     2       2;
  26     2       2;
  27     2       2;
  28     2       2;
  29     2       2;
  30     2       2;
  31     2       2;
  32     2       2;
  33     2       2;
  34     2       2;
  35     2       2;
  36     2       2;
  37     2       2;
  38     2       2;
  39     2       2;
  40     2       2;
  41     2       2;
  42     2       2;
  43     2       2;
  44     2       2;
  45     2       2;
  46     2       2;
  47     2       2;
  48     2       2;
  49     2       2;
  50     2       2;
  51     2       2;
  52     2       2;
  53     2       2;
  54     2       2;
  55     2       2;
  56     2       2;
  57     2       2;
  58     2       2;
  59     2       2;
  60     2       2;
  61     2       2;
  62     2       2;
  63     2       2;
  64     2       2;
  65     2       2;
  66     2       2;
  67     2       2;
  68     2       2;
  69     2       2;
  70     2       2;
  71     2       2;
  72     2       2;
  73     2       2;
  74     2       2;
  75     2       2;
  76     2       2;
  77     2       2;
  78     2       2;
  79     2       2;
  80     2       2;
  81     2       2;
  82     2       2;
  83     2       2;
  84     2       2;
  85     2       2;
  86     2       2;
  87     2       2;
  88     2       2;
  89     2       2;
  90     2       2;
  91     2       2;
  92     2       2;
  93     2       2;
  94     2       2;
  95     2       2;
  96     2       2;
  97     2       2;
  98     2       2;
  99     2       2;
  100    2       2;
  101    2       2;
  102    2       2;
  103    2       2;
  104    2       2;
  105    2       2;
  106    2       2;
  107    2       2;
  108    2       2;
  109    2       2;
  110    2       2;
  111    2       2;
  112    2       2;
  113    2       2;
  114    2       2;
  115    2       2;
  116    2       2;
  117    2       2;
  118    2       2;
  119    2       2;
];

%% Generator Data
% Bus   type   H(s)    Rs(pu)   Xd(pu)   Xd'(pu)  Xq(pu)  Xq'(pu)    Td0'(s)   Tq0'(s)    D(s)
% dyn.gen = [     
%   10     2      42.0    0.000    0.1000   0.0310   0.0690  0.0416667  10.20      1.50     84.00;
%   12     2      30.2    0.000    0.2950   0.0697   0.2820  0.0933333   6.56      1.50     60.40;
%   25     2      35.8    0.000    0.2495   0.0531   0.2370  0.0714286   5.70      1.50     71.60;
%   26     2      28.6    0.000    0.2620   0.0436   0.2580  0.0585714   5.69      1.50     57.20;
%   31     2      26.0    0.000    0.6700   0.1320   0.620   0.1660      5.40      0.44     52.00; 
%   46     2      34.8    0.000    0.2540   0.0500   0.2410  0.0675000   7.30      0.40     69.60;
%   49     2      26.4    0.000    0.2950   0.0490   0.2920  0.0666667   5.66      1.50     52.80;
%   54     2      24.3    0.000    0.2900   0.0570   0.2800  0.0766667   6.70      0.41     48.60;
%   59     2      34.5    0.000    0.2106   0.0570   0.2050  0.0766667   4.79      1.96     69.00;
%   61     2      31.0    0.000    0.1690   0.0457   0.1150  0.0615385   9.37      1.50     62.00;
%   65     2      28.2    0.000    0.1280   0.0180   0.1230  0.0241176   4.10      1.50     56.40;
%   66     2      92.3    0.000    0.1010   0.0310   0.0950  0.0420000   7.40      1.50     184.6;
%   69     2      248.0   0.000    0.0296   0.0055   0.0286  0.0074000   5.90      1.50     496.0;
%   80     2      300.0   0.000    0.0180   0.00285  0.0173  0.0037931   4.10      1.50     600.0;
%   87     2      300.0   0.000    0.0180   0.00285  0.0173  0.0037931   4.10      1.50     600.0;
%   89     2      225.0   0.000    0.0356   0.0071   0.0334  0.0095000   7.80      1.50     450.0;
%   100    2      225.0   0.000    0.0356   0.0071   0.0334  0.0095000   7.80      1.50     450.0;
%   103    2      225.0   0.000    0.0356   0.0071   0.0334  0.0095000   7.80      1.50     450.0;
%   111    2      225.0   0.000    0.0356   0.0071   0.0334  0.0095000   7.80      1.50     450.0;
% ];
% Bus   type    H(s)    Rs(pu)   Xd(pu)   Xd'(pu)  Xq(pu)  Xq'(pu)    Td0'(s)   Tq0'(s)    D(s)
% dyn.gen = [     
%   10     2      20.09    0.000    0.1000   0.0310   0.0690  0.0416667  10.20      1.50     84.00;
%   12     2      10.20    0.000    0.2950   0.0697   0.2820  0.0933333   6.56      1.50     60.40;
%   25     2      10.20    0.000    0.2495   0.0531   0.2370  0.0714286   5.70      1.50     71.60;
%   26     2      20.09    0.000    0.2620   0.0436   0.2580  0.0585714   5.69      1.50     57.20;
%   31     2       6.52    0.000    0.6700   0.1320   0.620   0.1660      5.40      0.44     52.00; 
%   46     2       6.52    0.000    0.2540   0.0500   0.2410  0.0675000   7.30      0.40     69.60;
%   49     2      10.20    0.000    0.2950   0.0490   0.2920  0.0666667   5.66      1.50     52.80;
%   54     2       5.27    0.000    0.2900   0.0570   0.2800  0.0766667   6.70      0.41     48.60;
%   59     2      10.20    0.000    0.2106   0.0570   0.2050  0.0766667   4.79      1.96     69.00;
%   61     2      10.20    0.000    0.1690   0.0457   0.1150  0.0615385   9.37      1.50     62.00;
%   65     2      20.09    0.000    0.1280   0.0180   0.1230  0.0241176   4.10      1.50     56.40;
%   66     2      20.09    0.000    0.1010   0.0310   0.0950  0.0420000   7.40      1.50     184.6;
%   69     2      40.00    0.000    0.0296   0.0055   0.0286  0.0074000   5.90      1.50     496.0;
%   80     2      20.09    0.000    0.0180   0.00285  0.0173  0.0037931   4.10      1.50     600.0;
%   87     2       5.27    0.000    0.0180   0.00285  0.0173  0.0037931   4.10      1.50     600.0;
%   89     2      24.80    0.000    0.0356   0.0071   0.0334  0.0095000   7.80      1.50     450.0;
%   100    2      13.60    0.000    0.0356   0.0071   0.0334  0.0095000   7.80      1.50     450.0;
%   103    2       5.27    0.000    0.0356   0.0071   0.0334  0.0095000   7.80      1.50     450.0;
%   111    2       5.27    0.000    0.0356   0.0071   0.0334  0.0095000   7.80      1.50     450.0;
% ];
% Bus   type    H(s)    Rs(pu)    Xd(pu)   Xd'(pu)  Xq(pu)  Xq'(pu)    Td0'(s)   Tq0'(s)    D(s)
dyn.gen = [     
  10     2      20.09    0.000    0.2950   0.0697   0.2820  0.0933333   6.56      1.50     40.18;
  12     2      10.20    0.000    0.2950   0.0697   0.2820  0.0933333   6.56      1.50     20.40;
  25     2      10.20    0.000    0.2950   0.0697   0.2820  0.0933333   6.56      1.50     20.40;
  26     2      20.09    0.000    0.2950   0.0697   0.2820  0.0933333   6.56      1.50     40.18;
  31     2       6.52    0.000    0.2950   0.0697   0.2820  0.0933333   6.56      1.50     13.04;
  46     2       6.52    0.000    0.2950   0.0697   0.2820  0.0933333   6.56      1.50     13.04;
  49     2      10.20    0.000    0.2950   0.0697   0.2820  0.0933333   6.56      1.50     20.40;
  54     2       5.27    0.000    0.2950   0.0697   0.2820  0.0933333   6.56      1.50     10.54;
  59     2      10.20    0.000    0.2950   0.0697   0.2820  0.0933333   6.56      1.50     20.40;
  61     2      10.20    0.000    0.2950   0.0697   0.2820  0.0933333   6.56      1.50     20.40;
  65     2      20.09    0.000    0.2950   0.0697   0.2820  0.0933333   6.56      1.50     40.18;
  66     2      20.09    0.000    0.2950   0.0697   0.2820  0.0933333   6.56      1.50     40.18;
  69     2      40.00    0.000    0.2950   0.0697   0.2820  0.0933333   6.56      1.50     80.00;
  80     2      20.09    0.000    0.2950   0.0697   0.2820  0.0933333   6.56      1.50     40.18;
  87     2       5.27    0.000    0.2950   0.0697   0.2820  0.0933333   6.56      1.50     10.54;
  89     2      24.80    0.000    0.2950   0.0697   0.2820  0.0933333   6.56      1.50     49.60;
  100    2      13.60    0.000    0.2950   0.0697   0.2820  0.0933333   6.56      1.50     27.20;
  103    2       5.27    0.000    0.2950   0.0697   0.2820  0.0933333   6.56      1.50     10.54;
  111    2       5.27    0.000    0.2950   0.0697   0.2820  0.0933333   6.56      1.50     10.54;
];
  
%% AVR Data 
% Bus   Type    KA     TA(s)   KE       TE(s)   KF      TF(s)   TB(s)   TR(s)   TC(s)   Vmin    Vmax    Vrmin   Vrmax   Kc
dyn.avr = [ 
  10    2       20.00  0.20    1.0000   0.314   0.0630   0.35   0.00    0.00    0.00    0.00    0.00    -10.00  10.00   0.00;
  12    2       20.00  0.20    1.0000   0.314   0.0630   0.35   0.00    0.00    0.00    0.00    0.00    -10.00  10.00   0.00;
  25    2       20.00  0.20    1.0000   0.314   0.0630   0.35   0.00    0.00    0.00    0.00    0.00    -10.00  10.00   0.00;
  26    2       20.00  0.20    1.0000   0.314   0.0630   0.35   0.00    0.00    0.00    0.00    0.00    -10.00  10.00   0.00;
  31    2       20.00  0.20    1.0000   0.314   0.0630   0.35   0.00    0.00    0.00    0.00    0.00    -10.00  10.00   0.00;
  46    2       20.00  0.20    1.0000   0.314   0.0630   0.35   0.00    0.00    0.00    0.00    0.00    -10.00  10.00   0.00;
  49    2       20.00  0.20    1.0000   0.314   0.0630   0.35   0.00    0.00    0.00    0.00    0.00    -10.00  10.00   0.00;
  54    2       20.00  0.20    1.0000   0.314   0.0630   0.35   0.00    0.00    0.00    0.00    0.00    -10.00  10.00   0.00;
  59    2       20.00  0.20    1.0000   0.314   0.0630   0.35   0.00    0.00    0.00    0.00    0.00    -10.00  10.00   0.00;
  61    2       20.00  0.20    1.0000   0.314   0.0630   0.35   0.00    0.00    0.00    0.00    0.00    -10.00  10.00   0.00;
  65    2       20.00  0.20    1.0000   0.314   0.0630   0.35   0.00    0.00    0.00    0.00    0.00    -10.00  10.00   0.00;
  66    2       20.00  0.20    1.0000   0.314   0.0630   0.35   0.00    0.00    0.00    0.00    0.00    -10.00  10.00   0.00;
  69    2       20.00  0.20    1.0000   0.314   0.0630   0.35   0.00    0.00    0.00    0.00    0.00    -10.00  10.00   0.00;
  80    2       20.00  0.20    1.0000   0.314   0.0630   0.35   0.00    0.00    0.00    0.00    0.00    -10.00  10.00   0.00;
  87    2       20.00  0.20    1.0000   0.314   0.0630   0.35   0.00    0.00    0.00    0.00    0.00    -10.00  10.00   0.00;
  89    2       20.00  0.20    1.0000   0.314   0.0630   0.35   0.00    0.00    0.00    0.00    0.00    -10.00  10.00   0.00;
  100   2       20.00  0.20    1.0000   0.314   0.0630   0.35   0.00    0.00    0.00    0.00    0.00    -10.00  10.00   0.00;
  103   2       20.00  0.20    1.0000   0.314   0.0630   0.35   0.00    0.00    0.00    0.00    0.00    -10.00  10.00   0.00;
  111   2       20.00  0.20    1.0000   0.314   0.0630   0.35   0.00    0.00    0.00    0.00    0.00    -10.00  10.00   0.00;
  ];


%% Turbine/Governor Data
% Bus   Type    T1     T2     T3      T4     K1     Dt      Pmin    Pmax    At      Kt
dyn.gov = [
  10    2       0.30   5.00   12.00   0.10   30.00  0.00    0.00    5.91    0.00    0.00;
  12    2       0.30   5.00   12.00   0.10   30.00  0.00    0.00    3.00    0.00    0.00;
  25    2       0.30   5.00   12.00   0.10   30.00  0.00    0.00    3.00    0.00    0.00;
  26    2       0.30   5.00   12.00   0.10   30.00  0.00    0.00    5.91    0.00    0.00;
  31    2       0.30   5.00   12.00   0.10   30.00  0.00    0.00    1.92    0.00    0.00;
  46    2       0.30   5.00   12.00   0.10   30.00  0.00    0.00    1.92    0.00    0.00;
  49    2       0.30   5.00   12.00   0.10   30.00  0.00    0.00    3.00    0.00    0.00;
  54    2       0.30   5.00   12.00   0.10   30.00  0.00    0.00    1.55    0.00    0.00;
  59    2       0.30   5.00   12.00   0.10   30.00  0.00    0.00    3.00    0.00    0.00;
  61    2       0.30   5.00   12.00   0.10   30.00  0.00    0.00    3.00    0.00    0.00;
  65    2       0.30   5.00   12.00   0.10   30.00  0.00    0.00    5.91    0.00    0.00;
  66    2       0.30   5.00   12.00   0.10   30.00  0.00    0.00    5.91    0.00    0.00;
  69    2       0.30   5.00   12.00   0.10   30.00  0.00    0.00    8.00    0.00    0.00;
  80    2       0.30   5.00   12.00   0.10   30.00  0.00    0.00    5.91    0.00    0.00;
  87    2       0.30   5.00   12.00   0.10   30.00  0.00    0.00    1.55    0.00    0.00;
  89    2       0.30   5.00   12.00   0.10   30.00  0.00    0.00    6.20    0.00    0.00;
  100   2       0.30   5.00   12.00   0.10   30.00  0.00    0.00    4.00    0.00    0.00;
  103   2       0.30   5.00   12.00   0.10   30.00  0.00    0.00    1.55    0.00    0.00;
  111   2       0.30   5.00   12.00   0.10   30.00  0.00    0.00    1.55    0.00    0.00;
  ];

%% IBR Data
% Bus    Type    TQ    TD     Rf      Xf    Teq    Ted 
dyn.ibr = [
   5     1       0.01  0.01   0.0040  0.05  0.01   0.01;
  16     1       0.01  0.01   0.0040  0.05  0.01   0.01;
  28     1       0.01  0.01   0.0040  0.05  0.01   0.01;
];

%% IBR Data
% Bus   Type   Kiq   TGqv    Kip     TGpv    Qmax    Qmin    Pmax   Pmin     Tr      Rq      Ki      Kp      Tfrq    Rp
dyn.control = [
   5    1      5     0.01    5       0.01    1.00    -1.00   1.00   0        0.02    0.00    20      4       0.01    0.05;
  16    1      5     0.01    5       0.01    3.00    -2.00   1.00   0        0.02    0.00    20      4       0.01    0.05;
  28    1      5     0.01    5       0.01    1.00    -1.00   1.00   0        0.02    0.00    20      4       0.01    0.05;
];

%% PMU Data
for i=1:1:118
    dyn.pmu(i,1) = i;
    dyn.pmu(i,2) = 0.1;
end


end